122

C          1.10091       -0.09497        0.33723
C          0.79686        1.39356        0.29632
C          1.32332        2.03370       -0.98667
C          1.01524        3.52991       -1.02566
C          1.54517        4.16703       -2.30907
C          1.23706        5.66232       -2.34987
C          1.76848        6.29582       -3.63351
C          1.46207        7.79063       -3.67454
C          1.99371        8.42139       -4.95856
C          1.68713        9.91546       -4.99951
C          2.22043       10.54507       -6.28260
C          1.91217       12.03819       -6.32331
C          2.44581       12.66718       -7.60586
C          2.13806       14.15994       -7.64497
C          2.67022       14.78816       -8.92794
C          2.36309       16.28067       -8.96568
C          2.89458       16.90832      -10.24880
C          2.58642       18.40033      -10.28650
C          3.11855       19.02768      -11.56923
C          2.81022       20.51949      -11.60691
C          3.34230       21.14644      -12.88974
C          3.03528       22.63849      -12.92701
C          3.56661       23.26505      -14.21041
C          3.25928       24.75709      -14.24826
C          3.79115       25.38410      -15.53144
C          3.48360       26.87631      -15.56927
C          4.01572       27.50497      -16.85190
C          3.70932       28.99786      -16.88773
C          4.24008       29.62918      -18.17004
C          3.93432       31.12287      -18.20360
C          4.46555       31.75701      -19.48479
C          4.16040       33.25157      -19.51857
C          4.69232       33.88499      -20.80046
C          4.38676       35.38006      -20.84161
C          4.91815       36.00599      -22.12833
C          4.61089       37.50093      -22.18572
C          5.14198       38.11415      -23.48111
C          4.82964       39.60852      -23.55633
C          5.36413       40.27208      -24.82680
C          4.72926       39.74221      -26.10357
H          0.63203       -0.61380       -0.50493
H          0.71839       -0.53451        1.26349
H          2.17979       -0.27572        0.29473
H         -0.28678        1.54253        0.36965
H          1.25111        1.87858        1.16805
H          2.40702        1.87964       -1.05735
H          0.86993        1.54262       -1.85640
H         -0.06818        3.68544       -0.95761
H          1.46827        4.02262       -0.15650
H          2.62863        4.01266       -2.37749
H          1.09269        3.67481       -3.17899
H          0.15365        5.81834       -2.28332
H          1.68931        6.15618       -1.48091
H          2.85229        6.14047       -3.70070
H          1.31654        5.80306       -4.50291
H          0.37807        7.94737       -3.60875
H          1.91380        8.28469       -2.80619
H          3.07795        8.26585       -5.02482
H          1.54245        7.92817       -5.82756
H          0.60328       10.07210       -4.93441
H          2.13839       10.40985       -4.13082
H          3.30395       10.38953       -6.34841
H          1.76903       10.05149       -7.15226
H          0.82907       12.19468       -6.25768
H          2.36418       12.53276       -5.45416
H          3.52904       12.51122       -7.67232
H          1.99355       12.17390       -8.47550
H          1.05445       14.31660       -7.57885
H          2.59023       14.65379       -6.77616
H          3.75438       14.63238       -8.99436
H          2.21850       14.29513       -9.79689
H          1.27887       16.43699       -8.89940
H          2.81496       16.77428       -8.09728
H          3.97856       16.75254      -10.31549
H          2.44252       16.41507      -11.11768
H          1.50300       18.55655      -10.21950
H          3.03925       18.89416       -9.41778
H          4.20166       18.87135      -11.63670
H          2.66522       18.53426      -12.43828
H          1.72701       20.67604      -11.53968
H          3.26345       21.01303      -10.73802
H          4.42589       20.98978      -12.95693
H          2.88928       20.65313      -13.75838
H          1.95136       22.79512      -12.85988
H          3.48808       23.13169      -12.05860
H          4.65061       23.10857      -14.27715
H          3.11415       22.77138      -15.07869
H          2.17556       24.91336      -14.18110
H          3.71202       25.25056      -13.37966
H          4.87444       25.22713      -15.59863
H          3.33777       24.89055      -16.40006
H          2.40038       27.03276      -15.50169
H          3.93684       27.36913      -14.69998
H          5.09893       27.34745      -16.91961
H          3.56179       27.01260      -17.72083
H          2.62568       29.15438      -16.81952
H          4.16267       29.48896      -16.01814
H          5.32370       29.47156      -18.23840
H          3.78607       29.13837      -19.03924
H          2.85055       31.27919      -18.13541
H          4.38741       31.61233      -17.33313
H          5.54879       31.59882      -19.55326
H          4.01138       31.26710      -20.35481
H          3.07724       33.40870      -19.44985
H          4.61474       33.74091      -18.64819
H          5.77551       33.72722      -20.86765
H          4.23933       33.39194      -21.66961
H          3.30357       35.53745      -20.77321
H          4.84170       35.87396      -19.97431
H          6.00203       35.84979      -22.19283
H          4.46766       35.50419      -22.99342
H          3.52731       37.65761      -22.11897
H          5.06544       38.00447      -21.32406
H          6.22606       37.96102      -23.54549
H          4.68871       37.59055      -24.33000
H          3.74549       39.76299      -23.49294
H          5.27185       40.11292      -22.68831
H          5.17131       41.34943      -24.76191
H          6.45176       40.14705      -24.88227
H          3.63744       39.80107      -26.05453
H          5.06342       40.33301      -26.96228
H          5.01219       38.70209      -26.29063
